   18
Interpolation factor:   0.983078
  O   -0.208777390  -0.216870672  -1.032405966
  H    0.711125931  -0.386891753  -0.773962396
  C   -1.022173368  -0.741171136  -0.005454186
  H   -2.057491187  -0.538707333  -0.268597254
  H   -0.907743364  -1.821826321   0.108537104
  H   -0.824631107  -0.275494719   0.964645466
  C    1.960099880   1.903107468   0.427679858
  H    2.466493509   2.864556551   0.392809501
  H    1.549555757   1.756971593   1.425556498
  H    1.130452078   1.893594194  -0.273825675
  C    2.875730263   0.748168649   0.111763646
  O    2.451535470  -0.371742144  -0.173317892
  N    4.201867178   1.009892927   0.170963010
  H    4.499879627   1.920321060   0.468650199
  C    5.184273212  -0.030218380  -0.051780811
  H    4.827716024  -0.681155702  -0.843957770
  H    6.124642450   0.423305456  -0.350294511
  H    5.343783325  -0.634745282   0.840294725
