   17
Interpolation factor:   1.020982
  N    1.381382191  -0.000233477   0.131463739
  C    0.679350788  -1.140239457   0.092079660
  H    1.258719604  -2.054962232   0.125883611
  C   -0.709722319  -1.193114069   0.006664265
  H   -1.214087679  -2.148561633  -0.025308510
  C   -1.421613574   0.000133427  -0.040816901
  H   -2.500696146   0.000257571  -0.109169733
  C   -0.709401197   1.193175380   0.006521983
  H   -1.213511626   2.148747839  -0.025528309
  C    0.679651666   1.139956229   0.091893028
  H    1.259260730   2.054510898   0.125502478
  C    0.019758331   0.666440088   3.504356596
  H    0.930232334   1.225925807   3.345241753
  H   -0.889789167   1.228844315   3.661317100
  C    0.020091015  -0.666247212   3.504488835
  H    0.930826706  -1.225329696   3.345478402
  H   -0.889197079  -1.229071983   3.661577986
