    7
Interpolation factor:   0.984146
  C   -1.006867219  -0.030568213  -0.024772854
  H    0.059003329  -0.060939737  -0.049365618
  C   -2.218743796   0.003173470   0.002599196
  H   -3.279277302   0.033524906   0.027200480
  O    2.253223829  -0.145160097  -0.115150594
  H    2.823580244  -0.734929478   0.381876332
  H    2.825219671   0.205827925  -0.800522748
