   27
Interpolation factor:   1.009880
  C    0.765545459   0.868244327   0.820990952
  H    1.437476465   1.680006636   1.065102812
  C    1.237652602  -0.442838075   0.793887953
  H    2.275758774  -0.648538076   1.017711411
  C    0.372237234  -1.488536665   0.477268618
  H    0.738187887  -2.506080122   0.457056091
  C   -0.964933181  -1.222971623   0.186878335
  H   -1.636459485  -2.034560785  -0.057773618
  C   -1.437065095   0.088405576   0.213277138
  H   -2.474684317   0.294302156  -0.011467463
  C   -0.571906490   1.134024158   0.530812805
  H   -0.937699351   2.151710583   0.551077644
  C   -0.763353946  -0.726598329   4.062020529
  H   -0.869607787  -0.551649169   2.989713664
  H   -1.414991521  -1.555862225   4.335171194
  C    0.706187240  -0.983661419   4.406150408
  H    1.201418020  -1.621246467   3.675566130
  H    0.769466415  -1.483875192   5.373617044
  C    1.346324286   0.421735255   4.497103264
  H    1.996592602   0.614406188   3.645250340
  H    1.959191469   0.510904678   5.392828626
  C    0.167278163   1.420912273   4.523975300
  H    0.050126675   1.879882666   3.541689962
  H    0.312871753   2.222417103   5.246373903
  C   -1.066493602   0.563817084   4.819624165
  H   -1.997482112   1.039554530   4.513711021
  H   -1.131919365   0.354496172   5.890159407
