   12
Interpolation factor:   0.980931
  O   -0.636134928  -0.023282411   0.280599321
  H    0.308097372  -0.047078748   0.076463691
  C   -1.152065407  -1.311287783   0.015259549
  H   -2.209945023  -1.296265392   0.263955863
  H   -1.056610240  -1.592670859  -1.036190606
  H   -0.674835746  -2.086272765   0.620511449
  O    2.204378932  -0.121883491  -0.011821481
  H    2.673168242   0.492501033  -0.581487435
  C    2.713212858   0.035135447   1.309895843
  H    2.159643778  -0.653060980   1.940026723
  H    3.772208960  -0.215303452   1.366618984
  H    2.560773220   1.045829500   1.687788389
