   14
Interpolation factor:   0.984398
  N   -0.638641380   0.470916372   0.044568477
  H    0.189954359  -0.113937162  -0.005773605
  H   -1.300468945   0.081256802  -0.613668480
  C   -1.198658820   0.391398577   1.391946599
  H   -2.092737771   1.009244715   1.453167495
  H   -1.462745512  -0.615843668   1.729452190
  H   -0.480275539   0.798674912   2.101087305
  N    2.390674334  -0.454250167   0.196289861
  H    2.686943004  -0.179712432  -0.731695382
  H    3.014224001  -1.201940483   0.471484724
  C    2.550904310   0.680960426   1.109965165
  H    2.280714006   0.366264646   2.115618274
  H    3.558314621   1.102736985   1.146936899
  H    1.858363927   1.466735908   0.817307919
