   14
Interpolation factor:   0.975774
  O   -0.552831024  -0.101697490  -0.000498788
  H   -0.871759633   0.801792198   0.000144400
  H    0.412659497  -0.001832248  -0.000251810
  N    2.357359782   0.096286595   0.000145441
  C    3.053266421   0.062315803   1.144893287
  H    2.468593870   0.085926745   2.055761315
  C    4.442290013  -0.002866629   1.194889351
  H    4.948196394  -0.027720784   2.149218473
  C    5.153453158  -0.035992427  -0.000021795
  H    6.233293109  -0.087765980  -0.000102223
  C    4.442144860  -0.002933284  -1.194823092
  H    4.947941807  -0.027806311  -2.149221693
  C    3.053114846   0.062261707  -1.144676832
  H    2.468345963   0.085862362  -2.055469385
