   22
Interpolation factor:   0.996578
  N   -0.941211241   0.790041357   0.011718907
  C   -0.922755241  -0.552378143   0.035378753
  H    0.057240512  -1.015588001   0.051354911
  C   -2.076519070  -1.333018128   0.039290353
  H   -1.996528949  -2.410585726   0.058877202
  C   -3.316312937  -0.703339547   0.017599046
  H   -4.231574887  -1.279084289   0.019793768
  C   -3.348895280   0.687018806  -0.007085956
  H   -4.285444142   1.226104547  -0.024658994
  C   -2.143103821   1.382633563  -0.008890049
  H   -2.138099744   2.465652585  -0.027782973
  N    2.526136889  -0.950217170   0.042527394
  C    3.727915705  -1.543393406   0.044607234
  H    3.722691853  -2.626355859   0.066496400
  C    4.933851942  -0.848434848   0.020605854
  H    5.870290268  -1.387970026   0.023699862
  C    4.901534334   0.541869609  -0.007140856
  H    5.816909271   1.117120660  -0.026322366
  C    3.661854003   1.172155740  -0.009617962
  H    3.582081272   2.249714318  -0.030706526
  C    2.507940432   0.392146119   0.015575706
  H    1.528030032   0.855808701   0.013912861
