   29
Interpolation factor:   1.005729
  C    0.311953526   0.561023339   0.496698861
  H    0.742136078   1.553369105   0.481565708
  C    1.142182348  -0.558074610   0.536061849
  H    2.216511315  -0.434250142   0.552350145
  C    0.587804145  -1.836687045   0.554144351
  H    1.231912390  -2.704841527   0.585221787
  C   -0.796657722  -1.996375617   0.532963001
  H   -1.226774425  -2.988444274   0.548637085
  C   -1.626892968  -0.877473651   0.494168282
  H   -2.701122115  -1.001349968   0.479814980
  C   -1.072665248   0.401205905   0.475973972
  H   -1.716973569   1.269401170   0.445919947
  C    0.170386311   0.506066735   4.836716702
  C    1.616634992   0.684854093   4.381755214
  H    2.032491710   1.618131971   4.765178194
  H    2.240034311  -0.135761533   4.740609083
  H    1.677244125   0.704245382   3.292820997
  C    0.115994942   0.474695597   6.361582018
  H   -0.909795084   0.347275174   6.710669793
  H    0.711400843  -0.350991270   6.754135755
  H    0.504289426   1.402580223   6.784487600
  C   -0.378993723  -0.803425239   4.276420682
  H   -1.413867325  -0.953700276   4.589092271
  H    0.207462853  -1.652399001   4.632231949
  H   -0.350213893  -0.803878016   3.186106439
  C   -0.670986472   1.670638422   4.320511227
  H   -0.649445515   1.706668816   3.230512664
  H   -1.710775620   1.566868852   4.634993709
  H   -0.295333875   2.621332894   4.702618138
