   25
Interpolation factor:   0.966797
  C   -2.275344982  -0.135074939   0.831333870
  H   -2.490717763  -0.727926686  -0.057566351
  H   -2.226323818  -0.818446408   1.678823407
  H   -3.112025664   0.544943419   0.987400079
  C   -0.961698124   0.619277891   0.669399201
  H   -0.788699202   1.250431809   1.544702661
  H   -1.026176875   1.295445240  -0.186458382
  C    0.226502174  -0.314710314   0.479985794
  H    0.309444388  -0.975139115   1.348037935
  H    0.039150560  -0.965998753  -0.378789833
  C    1.543001678   0.421174521   0.268999505
  H    1.711638628   1.107771769   1.102446539
  H    1.466094657   1.043743312  -0.625293582
  C    2.727576325  -0.526860908   0.137459311
  H    2.588741553  -1.203213913  -0.705757340
  H    3.661501004   0.011693084  -0.015968628
  H    2.835194072  -1.137409942   1.034075121
  C   -0.480981970  -0.287193999   4.108042101
  O   -0.903595910  -1.402374246   3.910895522
  O   -1.294674328   0.771771519   4.340631581
  H   -2.195436437   0.417390981   4.300095841
  C    0.959285093   0.122472082   4.125247484
  H    1.585108158  -0.747708863   3.967092325
  H    1.135322507   0.856745716   3.342122904
  H    1.196596340   0.591773036   5.077049875
