   18
Interpolation factor:   0.988211
  C   -1.309749745   1.180176173  -0.025170341
  O   -0.725300438   2.155147669   0.452713346
  N   -0.665621156   0.095054696  -0.491994491
  H    0.354582662   0.051448166  -0.459309217
  H   -1.183627037  -0.673599692  -0.870756096
  C   -2.816719340   1.155998649  -0.110605975
  H   -3.220628949   1.262541455   0.893082386
  H   -3.209427538   0.248634016  -0.561900090
  H   -3.143158132   2.016595633  -0.688893115
  C    2.770259724   1.063691965   0.133775787
  O    2.185837961   0.089671529  -0.345955179
  N    2.126172160   2.148435188   0.601622341
  H    1.106066792   2.192872972   0.567321024
  H    2.644196226   2.916396388   0.981742991
  C    4.277258906   1.087976345   0.219000872
  H    4.669129970   1.987625861   0.686184882
  H    4.680815100   1.000431308  -0.786779437
  H    4.605037668   0.217401441   0.781181210
