   21
Interpolation factor:   0.990096
  C    0.855560741   0.358532444   1.049754262
  H    1.513825504   0.902679557   1.712765824
  C    1.342897129  -0.675378664   0.251157396
  H    2.392883841  -0.933344720   0.281963052
  C    0.477806611  -1.376701096  -0.587815766
  H    0.856083995  -2.178907525  -1.206824282
  C   -0.874829828  -1.042556145  -0.630451783
  H   -1.545405726  -1.585700140  -1.282416138
  C   -1.362397293  -0.007013909   0.165846446
  H   -2.411571021   0.253467233   0.130778851
  C   -0.498444041   0.693156951   1.006991986
  H   -0.866110898   1.490339889   1.638036962
  C    0.082382787   0.498968144   4.802170302
  O    0.328872136   1.542394388   4.214931019
  N   -0.221664462  -0.656038393   4.151002957
  H   -0.196464150  -0.663053723   3.144366350
  H   -0.377440947  -1.511530710   4.646704668
  C    0.105227487   0.404076314   6.310587774
  H    1.136941288   0.488288597   6.645661568
  H   -0.316676424  -0.522566682   6.691613446
  H   -0.444237179   1.247922624   6.717358284
