   24
Interpolation factor:   0.985197
  C   -0.701502936  -0.290627698   2.406884396
  H   -1.183295956   0.395647770   3.098874220
  H    0.349561571  -0.030321572   2.307833035
  H   -0.794056854  -1.291605451   2.824039291
  C   -1.448546246  -0.244876636   1.091815299
  O   -2.660450004  -0.428479088   1.034345768
  N   -0.670056563   0.005916557   0.009776912
  H    0.326675319   0.122563958   0.141592839
  C   -1.227054574   0.089793737  -1.319967541
  H   -2.292024256  -0.106501186  -1.240877562
  H   -1.077801692   1.079940300  -1.748543540
  H   -0.776628489  -0.647999190  -1.983372734
  C    2.032314938  -2.351119823   0.685657458
  H    2.590539742  -3.261123059   0.479749455
  H    1.103623080  -2.357649273   0.121332041
  H    1.773096009  -2.327673124   1.742598458
  C    2.799950880  -1.096707784   0.349420719
  O    2.254764237   0.004729021   0.292448328
  N    4.126709093  -1.265521551   0.135672749
  H    4.503030393  -2.192767247   0.212430075
  C    5.013947277  -0.159055578  -0.153275786
  H    4.399754897   0.731754198  -0.233099499
  H    5.741361827  -0.019589846   0.644127521
  H    5.538937570  -0.319037306  -1.092418122
