   34
Interpolation factor:   0.992189
  C   -2.533308650  -0.294879067   0.713148758
  H   -2.563626820  -0.977081809  -0.136422641
  H   -2.566978352  -0.895875900   1.621731768
  H   -3.434426110   0.315957131   0.684104472
  C   -1.271884866   0.557655468   0.674354677
  H   -1.271026303   1.256565714   1.514319405
  H   -1.266632549   1.167895814  -0.231826531
  C   -0.000135043  -0.278418218   0.719603148
  H   -0.000159375  -0.887229516   1.628637086
  H   -0.000365425  -0.980714184  -0.119404392
  C    1.271894760   0.557382187   0.674061079
  H    1.270971755   1.256633312   1.513705410
  H    1.266636490   1.167182502  -0.232386925
  C    2.533403758  -0.294941760   0.713280149
  H    2.563919186  -0.977774101  -0.135778362
  H    3.434309555   0.316254316   0.683599450
  H    2.567558205  -0.895208868   1.622328649
  C    2.533557309   0.295058506   4.511275045
  H    2.568141796   0.894865204   3.601949497
  H    2.564060620   0.978265083   5.360019866
  H    3.434238000  -0.316438800   4.541483985
  C    1.271731107  -0.556828765   4.550579297
  H    1.266287397  -1.166556478   5.457076257
  H    1.270600595  -1.256182509   3.710998235
  C   -0.000043883   0.279270335   4.504962857
  H   -0.000198810   0.981580313   5.343947331
  H    0.000033013   0.888046754   3.595893222
  C   -1.271804722  -0.556871644   4.550234395
  H   -1.266422482  -1.166981093   5.456484498
  H   -1.270698382  -1.255894536   3.710370742
  C   -2.533523952   0.295174665   4.511256689
  H   -2.567717254   0.895708333   3.602379931
  H   -3.434325928  -0.316123690   4.540769871
  H   -2.564063486   0.977760905   5.360518079
