   15
Interpolation factor:   0.974676
  O   -0.392018453  -0.384718737   0.076071325
  H   -0.911460851   0.413812040   0.177648774
  H    0.524903820  -0.068484694   0.090511364
  C    2.188735394  -2.246355271  -0.230159899
  H    2.838698237  -3.107467148  -0.363075286
  H    1.507759424  -2.168883212  -1.074025174
  H    1.575718496  -2.385151258   0.656848464
  C    2.943467472  -0.948342394  -0.097566392
  O    2.366752025   0.126952462   0.059022350
  N    4.294100595  -1.045845078  -0.162184361
  H    4.695052223  -1.956379057  -0.291699459
  C    5.162342707   0.106125382  -0.052741279
  H    4.525848577   0.974425825   0.082043328
  H    5.827932214   0.014670184   0.803351602
  H    5.756808430   0.235545871  -0.955000466
