    6
Interpolation factor:   0.973264
  O   -0.702196054  -0.056060256   0.009942262
  H   -1.022193224   0.846775782  -0.011488714
  H    0.257521062   0.042121496   0.005218999
  O    2.215102397   0.026762053   0.000633988
  H    2.591724012  -0.411618013   0.766758370
  H    2.587366714  -0.449450922  -0.744768514
