   22
Interpolation factor:   1.007613
  N    1.322762722  -0.010375977   1.019183728
  C    0.651286010  -1.148992028   0.796801192
  H    1.200418421  -2.065528084   0.973672822
  C   -0.672681303  -1.194711724   0.366656928
  H   -1.157193621  -2.147321411   0.206464071
  C   -1.347196755   0.003133988   0.152144011
  H   -2.375356526   0.008405422  -0.182293017
  C   -0.664557967   1.194090624   0.379001986
  H   -1.142626333   2.151557646   0.228720506
  C    0.658895764   1.134978544   0.808859868
  H    1.214102717   2.045910451   0.995438309
  N    0.449922570   0.001297222   6.781611259
  C    1.320590587  -0.004315569   5.762198226
  H    2.368447161  -0.003067044   6.036501018
  C    0.947204851  -0.011383330   4.420370154
  H    1.694665514  -0.015547349   3.639270506
  C   -0.408843706  -0.012797394   4.107954688
  H   -0.738572385  -0.018252871   3.077673240
  C   -1.326946970  -0.007082308   5.153124302
  H   -2.391397006  -0.007931698   4.964388516
  C   -0.851343166  -0.000164653   6.462083152
  H   -1.543526829   0.004418476   7.295274357
