7

  N   -0.569708236   0.814372455   0.101097747
  H    0.130877738   0.561410651  -0.587614553
  H   -1.461252150   0.526914799  -0.280429961
  C   -0.305514367   0.065710301   1.328791732
  H   -1.057149479   0.314270169   2.075959401
  H   -0.288023528  -1.022292484   1.214846260
  H    0.660457725   0.368509129   1.730242243
