17

  C   -0.000521204   0.063971293   5.241306329
  C    0.000550539  -0.076159812   6.761039283
  H   -0.886485486   0.387916230   7.194408696
  H    0.009802041  -1.126940059   7.054049152
  H    0.879210762   0.403504750   7.194682352
  C   -1.239976541  -0.617680738   4.667407818
  H   -1.263275755  -0.528723614   3.580578633
  H   -1.252062170  -1.678957133   4.920421019
  H   -2.150920262  -0.165389480   5.062492938
  C    1.252083908  -0.593569514   4.667835991
  H    1.273410694  -0.505283849   3.580865032
  H    1.285214442  -1.654130354   4.921928310
  H    2.153896142  -0.122926202   5.062257113
  C   -0.014769079   1.543763784   4.866685053
  H    0.862996918   2.054350802   5.265640184
  H   -0.015293280   1.670218710   3.783033364
  H   -0.902875028   2.037097496   5.264473194
