12

  C    1.372190931   1.012477363   0.970824683
  H    0.952176233   2.014049548   1.033117247
  H    1.947421697   0.926515596   0.050717756
  H    2.051702084   0.851825168   1.802952467
  C    0.326737060  -0.077647271   0.988198764
  O    0.618821276  -1.252481304   1.171281257
  N   -0.950028843   0.344886797   0.773914914
  H   -1.104671561   1.322025495   0.606112159
  C   -2.059854399  -0.577368949   0.680153489
  H   -1.669356016  -1.566796005   0.897184251
  H   -2.834591759  -0.331380325   1.403661394
  H   -2.490970503  -0.578924829  -0.319939259
