7

  N   -0.541059198   0.029576202  -0.208995077
  H    0.055553351  -0.786118099  -0.130293346
  H   -1.469669404  -0.274708452   0.053143382
  C   -0.078799266   1.042390365   0.738458862
  H   -0.720152936   1.919413767   0.671980262
  H   -0.050758189   0.723822930   1.785514529
  H    0.926430724   1.356603792   0.461999188
