7

  N    2.201272440  -0.036420873  -0.003338390
  H    2.571891992   0.471355633   0.789794001
  H    2.572015280   0.427917694  -0.822597224
  C    2.679024376  -1.422454320   0.034122815
  H    2.287139539  -1.956479597  -0.828068914
  H    3.765735532  -1.529189488   0.037157310
  H    2.286897975  -1.909184489   0.923754962
