7

  N    2.398893475  -0.455521151   0.197044518
  H    2.695162145  -0.180983416  -0.730940725
  H    3.022443142  -1.203211467   0.472239381
  C    2.559123451   0.679689442   1.110719822
  H    2.288933147   0.364993662   2.116372931
  H    3.566533762   1.101466001   1.147691556
  H    1.866583068   1.465464924   0.818062576
