12

  C    2.256891547   2.690099898  -0.149327299
  H    2.381510017   3.101276629  -1.148371631
  H    2.763462923   3.331092450   0.568457221
  H    1.190479791   2.663570371   0.069094130
  C    2.768883238   1.272302217  -0.147033267
  O    2.308903353   0.406565798  -0.886207880
  N    3.755366207   0.999269871   0.745297441
  H    4.155127228   1.754202646   1.270650195
  C    4.343811546  -0.320320674   0.822797008
  H    3.555634934  -1.061650821   0.729776412
  H    5.065071328  -0.492316046   0.024252616
  H    4.838465059  -0.436188863   1.782736536
