7

  N    2.238288220   0.254574278   0.282519240
  H    2.641954545   0.794493806   1.037719330
  H    2.656292093   0.621955527  -0.563126681
  C    2.610591059  -1.156608536   0.436271989
  H    2.184303659  -1.727641121  -0.385103461
  H    3.685989701  -1.343297985   0.462055386
  H    2.176118486  -1.541015548   1.356107990
