11

  N    2.272336654   0.016432301  -0.001626839
  C    2.968705043  -0.008003030  -1.146346443
  H    2.384226446   0.015220505  -2.057321881
  C    4.358342106  -0.057745894  -1.195031693
  H    4.865694454  -0.075037926  -2.148814417
  C    5.068715334  -0.083458511   0.000581334
  H    6.149051337  -0.121223264   0.001430629
  C    4.356467882  -0.058437404   1.195121187
  H    4.862266616  -0.076261731   2.149606879
  C    2.966914239  -0.008687717   1.144167102
  H    2.380908453   0.013986710   2.054285788
