11

  N   -0.533723269  -1.515861627   3.844143710
  C   -1.466201362  -0.555232172   3.917994868
  H   -2.468990609  -0.886186971   4.160187734
  C   -1.204198324   0.795836252   3.708615487
  H   -2.002756081   1.520341687   3.786886580
  C    0.095229009   1.185077535   3.398347078
  H    0.337213567   2.224076017   3.222475823
  C    1.074788317   0.202179380   3.314985614
  H    2.097089556   0.448925125   3.066548634
  C    0.712308597  -1.122958378   3.548178608
  H    1.456169362  -1.908513012   3.491730011
