12

  N   -1.355460893  -0.836045936   0.734624939
  H   -1.030372184  -1.382522317   1.523355628
  C   -1.287542491  -1.453828282  -0.520654996
  O   -0.899121141  -2.607376234  -0.625976731
  N   -1.989982711   1.216909834  -0.098071819
  H   -1.705845290  -0.987141154  -2.611995560
  C   -2.004296650   0.700872760  -1.364397399
  H   -2.276076761   1.394761569  -2.145645314
  C   -1.693072128  -0.588236267  -1.612487223
  H   -2.108013995   2.205222436   0.056829125
  C   -1.624504810   0.488907508   1.018718301
  O   -1.539675797   0.975517907   2.129809048
