17

  C   -0.375028423   0.069313633   5.966488332
  C    1.047784030  -0.399652367   5.673088791
  H    1.232223232  -0.438981518   4.598568325
  H    1.779218179   0.278020461   6.115824366
  H    1.220047697  -1.396658409   6.081209363
  C   -0.581425233   1.465875159   5.385657857
  H   -1.593388328   1.822860606   5.582505383
  H    0.119493365   2.176946632   5.825379625
  H   -0.428316017   1.466071774   4.305515502
  C   -0.595322914   0.109489847   7.476341960
  H   -1.606539069   0.443766833   7.712415148
  H    0.107189541   0.794438879   7.953180180
  H   -0.454759821  -0.879030492   7.915793698
  C   -1.371491141  -0.898464027   5.333341936
  H   -1.242565132  -1.905439408   5.732920908
  H   -2.397380238  -0.584691171   5.531729789
  H   -1.236786775  -0.945438421   4.251765274
