17

  C    0.170467969   0.506131973   4.834694024
  C    1.616716650   0.684919331   4.379732536
  H    2.032573368   1.618197209   4.763155516
  H    2.240115969  -0.135696295   4.738586405
  H    1.677325783   0.704310620   3.290798319
  C    0.116076600   0.474760835   6.359559340
  H   -0.909713426   0.347340412   6.708647115
  H    0.711482501  -0.350926032   6.752113077
  H    0.504371084   1.402645461   6.782464922
  C   -0.378912065  -0.803360001   4.274398004
  H   -1.413785667  -0.953635038   4.587069593
  H    0.207544511  -1.652333763   4.630209271
  H   -0.350132235  -0.803812778   3.184083761
  C   -0.670904814   1.670703660   4.318488549
  H   -0.649363857   1.706734054   3.228489986
  H   -1.710693962   1.566934090   4.632971031
  H   -0.295252217   2.621398132   4.700595460
