15

  C    1.056723141  -0.863510313   4.398743665
  H    1.510575650  -0.955566552   3.410761111
  H    1.601225641  -1.527490580   5.067941337
  C    1.111036612   0.602441689   4.831679647
  H    2.069326603   1.075340623   4.620955358
  H    0.922921326   0.684079231   5.904902779
  C   -0.056314971   1.215256166   4.060908446
  H    0.217989305   1.304037769   3.007436824
  H   -0.340729395   2.206397291   4.412542460
  C   -1.173259463   0.177684257   4.231936760
  H   -1.898798742   0.201298111   3.420564848
  H   -1.717345093   0.382381413   5.154185376
  C   -0.450223118  -1.188863574   4.335593647
  H   -0.692887664  -1.833019699   3.492233973
  H   -0.765329345  -1.716265988   5.234680067
