12

  C    0.158106194   0.152890320   4.085882848
  H    0.280232601   0.378373776   3.035456414
  C   -0.932975374  -0.602008291   4.513219117
  H   -1.653479903  -0.958522548   3.789524696
  C   -1.093675355  -0.896133614   5.866169184
  H   -1.940782942  -1.482102178   6.196416725
  C   -0.161792794  -0.435080234   6.794663262
  H   -0.285686290  -0.663046395   7.844670761
  C    0.929792305   0.320021820   6.369422978
  H    1.652911390   0.677855000   7.089805632
  C    1.088596199   0.613506839   5.015931661
  H    1.935854117   1.199581634   4.685884336
