9

  C    0.081929372   0.497530723   4.804728614
  O    0.328418721   1.540956967   4.217489331
  N   -0.222117877  -0.657475814   4.153561269
  H   -0.196917565  -0.664491144   3.146924662
  H   -0.377894362  -1.512968131   4.649262980
  C    0.104774072   0.402638893   6.313146086
  H    1.136487873   0.486851176   6.648219880
  H   -0.317129839  -0.524004103   6.694171758
  H   -0.444690594   1.246485203   6.719916596
