11

  N    2.533211285  -0.950029301   0.042517891
  C    3.734990101  -1.543205537   0.044597731
  H    3.729766249  -2.626167990   0.066486897
  C    4.940926338  -0.848246979   0.020596351
  H    5.877364664  -1.387782157   0.023690359
  C    4.908608730   0.542057478  -0.007150359
  H    5.823983667   1.117308529  -0.026331869
  C    3.668928399   1.172343609  -0.009627465
  H    3.589155668   2.249902187  -0.030716029
  C    2.515014828   0.392333988   0.015566203
  H    1.535104428   0.855996570   0.013903358
