8

  C   -0.483561489  -0.287863150   4.121251537
  O   -0.906175429  -1.403043397   3.924104958
  O   -1.297253847   0.771102368   4.353841017
  H   -2.198015956   0.416721830   4.313305277
  C    0.956705574   0.121802931   4.138456920
  H    1.582528639  -0.748378014   3.980301761
  H    1.132742988   0.856076565   3.355332340
  H    1.194016821   0.591103885   5.090259311
