9

  C    0.042162220   0.201242082   4.116508191
  O    0.069074487   1.386315563   3.824667005
  N    1.174742492  -0.550635565   4.219328136
  H    2.045682745  -0.128055046   3.950665881
  H    1.135804528  -1.542522229   4.350751060
  C   -1.248058760  -0.537695406   4.380962020
  H   -1.100808756  -1.498416766   4.868086386
  H   -1.754286285  -0.696004336   3.430148673
  H   -1.886002708   0.089541025   4.996233873
