8

  C    0.418986880  -0.271678839   4.024976966
  O    1.614479554  -0.107728093   4.101492743
  O   -0.160514792  -1.483083800   4.224415323
  H    0.573936066  -2.084192294   4.417453438
  C   -0.602897348   0.772252678   3.704295786
  H   -0.124602928   1.743199030   3.657473015
  H   -1.055697450   0.539056490   2.741587739
  H   -1.387748362   0.766716178   4.456795266
